92

O           16.48879722103428       71.29320437331478       38.35920764070762
O           18.76537738961425       71.02897623546723       37.94045808901920
O           15.99424653276638       70.06748394489696       41.00291574967871
O           14.45424619546315       68.63248363059650       42.49591607666632
O            9.66624514688662       61.78848213176834       46.39691693095808
O           14.83524627891216       64.93648282117456       44.41191649628288
O           11.83924562277140       63.00948239918650       44.53791652387560
N            8.48724488870131       59.17548155948852       46.46591694606964
N           11.61724557418840       60.72548189895730       46.03791685235792
N           18.19624701499473       70.49048403752592       41.16591578536860
N           16.38324661791608       67.48748337983753       42.23691601993324
N           13.36424595677340       66.15748308859273       43.21991623520828
N           12.79024583108496       64.22048266438620       46.17991688345785
C           12.46824576052906       61.81048213656428       46.52691695942760
C           12.43024575222592       59.61648165608953       45.51291673739705
C           13.78524604899041       60.26648179843716       45.31991669510470
C           12.74324582076934       65.49348294314984       45.45591672491589
C           13.74924604109921       65.51548294799869       44.31391647477483
C            7.39524464954671       59.32448159213608       44.40191649406442
C           13.12424590421835       66.51448316678093       46.53291696076926
C           12.75624582360571       65.83748301850169       47.81791724216330
C           13.21124592324905       64.42948271013283       47.57491718899033
C           13.86924606735028       61.19348200143701       46.47191694741129
C           14.23824614816889       66.28448311639143       42.06591598248974
C           15.03824632337005       67.57048339804435       42.27691602870124
C            8.77824495244879       59.96048173144138       44.19391644852376
C           13.42724597054331       66.37548313629893       40.74891569408132
C           14.36224617534968       66.47648315842488       39.55391543233589
C           12.52224577239231       65.15848286981048       40.60291566210459
C            7.14324459436125       59.41448161183761       45.91091682455923
C           17.22724680276202       68.64948363430966       42.48091607336509
C           17.09024677274487       69.79548388532751       41.48791585592451
C           10.27524528026028       60.78948191298610       46.01391684709712
C           16.92524673664304       66.11748307982474       42.03791597635215
C           18.25724702835269       66.32548312536538       41.38491583333369
C           19.02024719545668       65.09648285624655       41.07391576525513
C           19.43824728700286       65.96248304588843       42.20191601224801
C           12.35424573556673       63.06348241099683       45.65591676870294
C           18.22224702066747       71.62348428565448       40.22791557994432
C           17.85824694098455       71.29548421380984       38.77091526084791
C            9.51424511362115       59.57948164799237       45.47691672950585
C           19.65724733496794       72.13748439819094       40.36391560975550
C           20.43524750532024       70.89148412535893       40.68391567984655
C           19.54724731088242       70.22848398012201       41.70391590321876
H           16.44791924209816       71.16578232543377       37.37553052529160
H            8.69773059481865       61.06013691227218       44.08149493391507
H            7.39694919993814       58.27086473141917       44.07080550153616
H            6.61628015892845       59.83940582492450       43.81910480646248
H            6.71189435990482       60.39447062645662       46.19630492703659
H            6.46600751603577       58.62142418818247       46.28439703635755
H           10.16036173511802       58.67657368025209       45.32642694652895
H            8.61038574563810       59.65706448499577       47.35728699130841
H           14.10399186874952       60.66632067600167       47.41928393490300
H           14.64841387800478       61.96856336120820       46.36303202356915
H           14.60703478893685       59.52231820544394       45.27483608524985
H           13.83509137990963       60.79812064489673       44.34183461093568
H           12.01868736210266       59.22189214966046       44.55705995807548
H           12.45347094731630       58.77663726213706       46.24307230729511
H           12.14340768942661       62.05780622076112       47.57500280898220
H           12.60435676036029       67.47957069811088       46.38614183863439
H           14.20704575132616       66.75690981986000       46.49181720176336
H           11.66399725439065       65.88954382988780       48.01967055637532
H           13.23572085859885       66.30134696007961       48.70020986542372
H           14.31390649473927       64.30653768320347       47.66717209916391
H           12.73658867929728       63.69450213920524       48.26038603910752
H           11.69540677126479       65.64663091671565       45.07201871084722
H           12.79888403297159       67.30479005983243       40.78975994299004
H           11.93142310297767       65.20657471032571       39.68120998023178
H           11.81025690642610       65.05739045766252       41.43334276396088
H           13.09206842716262       64.21905837408595       40.58066441719624
H           15.02784001107409       67.34828761936258       39.63412775994298
H           14.98893196257749       65.58486290317029       39.43470981624257
H           13.79439594095697       66.60014792552195       38.62359344863304
H           14.84194248039149       65.33029807740867       42.01930592225830
H           12.48538191431868       66.66731711022237       43.16084744228046
H           18.27808980292864       68.32304448285848       42.63984181819038
H           16.90516731221456       69.09425014174978       43.47183170039261
H           19.73102445108869       72.89964788514024       41.16376421491749
H           20.01474922323081       72.63794414783020       39.44200098782449
H           21.44956171746937       71.10423581191753       41.07272173498548
H           20.59436229017286       70.26614968837492       39.78257633245319
H           19.74224826356004       69.13771452127945       41.79535591322391
H           19.64985128335033       70.67356313759204       42.71889626548313
H           17.46116471401240       72.38711176289837       40.57521126601073
H           16.29235661804948       65.51624546813153       41.33850367319847
H           16.97063313659044       65.58200612254376       43.01412304015192
H           18.29102600576519       67.15255850651222       40.66311586526186
H           19.61145454493143       65.03154790198282       40.15644065428180
H           18.60185852381350       64.10523010912992       41.27969049027651
H           19.30848223856110       65.61356131944883       43.22813377699833
H           20.34362048526492       66.56438262767226       42.16024399315492
H            9.28297914295212       59.58770909979204       43.29073526070871
