455

P          -18.04267114133982        6.51691850716616       -5.99352629857111
P          -15.52758632452930        8.67809683247499       -0.54085379643921
P          -12.00766573765141        8.31742224149351        4.84604024525718
P           -7.90192653149489        4.82651320300462        9.15739470646635
P           -5.18302816406987       -0.79214370644732        8.83428733669339
P           -2.92606929380247       -6.12879085921231        5.70479170132789
P           -0.56285936722810       -9.00093995321057        0.82683111802580
P            2.64175036352745       -8.97778101212694       -4.75732065682999
P            6.55582486271866       -4.85809798092226       -8.31283487050597
P            8.83815103752488        0.58719489859006       -8.14252320920754
P           11.62663870023776        5.95365523782907       -5.97274253001882
P           15.66621511991830        9.01446680314137       -1.69198788150753
P           18.73117287314314        8.28770039996919        3.60074930954874
O          -17.23606479772553        6.50907610346942       -7.42711118555070
O           20.87268978511128       -0.58791773470973        1.75855991711188
O          -15.14229569814393        9.48482717117421       -1.92113221173047
O          -11.54281763589120        9.68561459912582        4.06091937732254
O           -7.02284760198133        6.07815603710318        9.76740164404930
O           -4.34153417479135        0.18075609753989        9.86387261015871
O           -2.22794957590923       -6.20948600186223        7.19334632831147
O           -0.15012653184681       -9.53375580789272        2.32792517179758
O            2.65847421615847      -10.08541407769206       -5.95959497211749
O            7.22623635750761       -6.06603622946684       -9.20884739875166
O            9.45292354618974       -0.32042897715167       -9.36983783395914
O           11.89804063168017        5.71013384650931       -7.57640129320590
O           16.29433216147291        9.71946469156800       -3.04048880784487
O           19.13546668168096        9.55266430805034        2.62875692667043
O          -20.20939174087411        2.39278918597766        0.01943054020522
O          -19.10199850133105        2.90168942246063       -9.11424637100413
O          -18.21630436537312        1.65333192107709       -6.17699469275319
O          -18.47409981384637        4.94497608093653       -5.87498320862794
O          -19.16365185786626        7.43744005978294       -5.81286594598456
O           22.39205034989216        4.92856333133842        6.63485217099345
O           17.58058843017053        8.38159203053154        4.49594541057898
O           18.52876449280540        7.11852579795936        2.47563746914782
O          -17.03382369843721        1.90630030044291       -1.94796582758855
O          -16.71569929076627        6.71686237100108       -5.05705236147432
O           18.20923303484942        5.94089256705493       -0.48975517421613
O          -15.77148325595837        4.67720294528226       -3.00497930907609
O           17.13680457195269        8.67706840327549       -1.04483660980250
O          -15.66574857580824        7.15460651084342       -1.10867334076951
O          -16.71181173689635        9.05614613128461        0.22924616516063
O          -13.61965487868659        0.08323217422687        3.19537541277992
O          -14.06909696213736        8.84764567460248        0.18961228349566
O           16.86623177570755        3.03620895291466       -0.95860493788785
O          -12.75567849550413        6.17933323827586        0.66245404307293
O          -12.43405486905117        7.36666168330346        3.58450881997660
O          -13.04881945868317        8.40555043679225        5.86707299588395
O          -10.43157091149661        3.47725442451348        2.00650255642143
O          -10.51250297625509        7.80921960619810        5.27562722434751
O           -8.92061078160928        4.91388537810855        4.97754544105538
O           -8.71730515910019        5.51687301816891        7.91273677288789
O           -8.79420293890582        4.05878190886509       10.01564128841985
O           21.92870396538319        5.48696680163292        4.15088856403086
O           -6.58749908165890        4.08787284020323        8.48728520471096
O           -5.66297512818739        2.90216897353772        5.75629860460235
O           -5.65811690508778        0.30331891238636        7.71433379040067
O           -6.30671265817147       -1.58364743578415        9.32866353096032
O           -4.86180477871840       -2.86003362434598       -0.25676158922646
O           -4.25953118482480        0.32368707183965        2.96365722304273
O           -3.87664935098222       -1.58681012450979        8.25150278308222
O           -2.99708847533499       -1.40128977486247        5.37259959459964
O           14.66136174983640        9.70298347594900       -0.89033957098057
O           15.05168892631247        7.60904391136385       -2.26388667075472
O           -3.21067301710165       -4.52827211167203        5.54203094766577
O           -4.11904253602958       -6.90952979819674        5.39980092752694
O           14.54752420988354        4.80722880676010       -3.58809297875763
O           20.20647463720738        8.08242349904718        4.28509789840899
O           13.10400017978231        6.56569749788134       -5.61995732177422
O           -1.62790983848270       -1.80909393316280        1.68215507138377
O           -1.52723657642381       -6.44827273314694        4.90033679116070
O           -0.33609124857619       -4.67556386793768        2.72887792260199
O           -0.48999273927514       -7.38377770602338        1.05646485334850
O           -1.84038995102553       -9.37848686889941        0.22765349984267
O            1.33749177390776       -1.02174205271879       -3.15046772093013
O            0.81137086464963       -9.48116974636351        0.07473717232872
O           14.17293835984994        1.72065190977958        2.22253908768773
O            2.51439465564451       -7.32455954406364       -1.68375116370702
O            2.75081822942200       -9.97242611696165       -3.45632380893550
O            1.47692661643436       -8.06940897119279       -4.77713361316888
O            4.30876061360893        0.10777927756339       -2.70176991967438
O            5.15699333334309       -4.05535275511909       -1.00931554401113
O            4.16129828930891       -8.38341652097496       -4.83024383981599
O            6.05493827203289       -5.62905268672693       -4.16727640662805
O            5.80659547761317       -5.71937091551911       -7.13624482782128
O            5.69057909621441       -3.89399484875110       -8.99187787822139
O            7.93608703597023       -4.31406337974207       -7.60572463462213
O            9.32093508327251       -3.07299239995343       -5.02309654204814
O            8.71163594084331       -0.50924177049308       -6.93313216934814
O            7.59697992870751        1.33249136181296       -8.30382476554580
O           10.90157166442969       -0.18270984399047       -2.49770248099706
O           10.23166171173999        1.42808660575245       -7.90482987215895
O           11.64140789448690        1.30093081185588       -5.20859592568976
O           11.55575997469761        4.40985997073305       -5.44339147309153
O           10.45490551262344        6.70480460834795       -5.52510903999540
N           20.42394578185940        1.24571553378394        0.49430888523934
N           19.99133739412365        3.12047886536397       -0.96186232760580
N           20.20236752332532        3.51547979589316        1.35575169687081
N           20.95467934307559        1.40050416069025        4.23049537847089
N          -19.88529077986761       -0.12767044392987       -3.30026022874562
N          -20.08881913745281       -1.92210942492574       -1.75730490783383
N          -20.11923660411071        0.31427366480465       -0.90431084202245
N          -20.23518144650291        3.48980827027256       -2.91454430624695
N           10.39545178959923        1.93051484377010       -3.27612589044455
N          -20.00104869222125        1.97574208268249       -4.63733515956578
N          -17.12841559411870        2.56137047191984        2.66338651128526
N           10.75738202386612        1.46682330620729       -0.90443353406113
N          -17.05941761702777        2.21227908646666        0.33559286545390
N           10.48083605832151        3.15392236070286        0.68997700410559
N          -17.21328438469807        4.09022055673940       -1.22513052730482
N           16.93238515018269        4.46160901010026        0.85197568754144
N          -14.04341941453170        2.92623437183376        0.15864803372838
N          -14.27539348230306        1.08013864851623       -1.30389935055334
N          -13.87176976889745        0.64130364342913        1.01106371740008
N          -13.67008466876499        3.19491636367292        3.77746624026325
N          -13.93235466518550        4.60002845738243        1.97620479978213
N           17.14911366663633        2.04232479925493        1.09216626917590
N           17.50501415561530        1.08038605558559        3.18820724021245
N          -10.78051175192709       -0.83246947529599        3.69209432354521
N          -10.63396102981896        1.33297746389368        2.81595342666165
N          -10.45288523916352        3.25561968693623        4.31101838211770
N           -7.35713719019983        2.40244831613393        2.41567253399663
N           -7.81989807254111        0.69984787324478        0.74206329649125
N           -7.83022571781192       -1.62715594933790        1.16944667006557
N           -7.56333689033554       -0.76863095232289        4.20883183769000
N           -7.22632067757538        1.45030026261318        4.72232508116363
N           -4.57245832336615       -1.28819951806925        1.34902303639510
N           -4.59030772024302       -1.85798155885015        3.68333666463966
N           -1.95996362222655       -2.45636243791320       -2.90980507523107
N           -1.71801919219965       -2.11556119827891       -0.60086563157143
N           -1.78847843067060       -3.99028962384077        0.96446493219119
N           13.43668180062084        4.43463267919181       -1.52888681480614
N            7.82145381085976       -1.80052315629943       -3.68511617702118
N           13.69906375508838        4.48116223736990        0.75507255331612
N            7.48548368732235        0.42299437063451       -3.18298944704607
N            1.36997370297826       -4.09589260995797       -0.32852214491291
N            1.66077373970708       -2.41446268577000        1.30283658229626
N            7.72990160182024        1.41359143656262       -0.22813799391225
N            8.06062427227836       -0.87713809705354        0.31588098415406
N            1.56431287855623       -1.75977946939233       -1.01044513926817
N            8.27473604817976       -2.63783651864624       -1.36061318996879
N            0.83147109606601       -4.04135117105366       -3.93100940086375
N            1.00010520401269       -5.60310302904885       -2.25834420554917
N           14.10697560541980        0.78240504734188        0.15349232660937
N           14.02862337326464       -0.33829056505704       -1.96978283434513
N           13.68053688602986        2.00031921106427       -1.91949595532438
N            4.80207351361651       -1.95047174015195       -1.88646646408965
N            4.68807181968182       -3.91297172290568       -3.27418036804464
N           20.54208612673980        3.62084662292258        3.80585874743726
C           12.54530828244420        3.44922547433406       -5.91168153664701
C           20.17716542678374        2.61606321389336        0.31839708570938
C           11.79367445479231        2.18686965290375       -6.33885094620650
C           10.35168051002755        2.42763872362462       -6.86464872132059
C           20.49168884471251        2.94729472745740        2.57133342807410
C          -19.97716027701757        1.23633044371563       -3.44246731285740
C            9.46421994363954        2.22371495495107       -5.63210043242207
C            6.65879867727319       -6.55700966995668       -6.30692216720114
C            5.87744279113428       -6.79144315830613       -5.01333176190316
C          -19.99486210089038       -0.55880613232934       -2.00395668885315
C            4.34965539657106       -6.98536766677367       -5.20467520182081
C           10.30534592485423        1.38429544811075       -4.65423198925803
C            3.69304702974471       -6.03413164746517       -4.21576529624714
C            4.82249930508454       -5.37330923171383       -3.41514238791954
C          -20.17065763740992        1.75513198634761       -1.02129755863416
C            4.90678604256820       -3.34640829483948       -1.96336515794327
C          -20.13983999563893        2.19011988163535       -2.38791285591162
C           10.70698346980238        0.99013104379856       -2.19555166479917
C            4.40026782061482       -1.08357381726214       -2.94508608396157
C           13.67154837605554        3.11254170262416       -1.11860202692382
C            4.11467289711694       -1.75859098611817       -4.22415123205236
C            3.59435450016920       -0.90125936335169       -5.32189582550035
C            4.24891451348164       -3.10163955223135       -4.34649608383802
C          -20.14111488991923        3.35893984958577       -4.23375058215729
C          -19.63387943181233        1.46500552382733       -5.96892283319253
C          -20.34100441369865        2.23348928812266       -7.09673319315685
C          -19.27437563809915        3.15248490738119       -7.72330713838622
C          -17.95533669022917        2.84030086700060       -6.96453247419754
C          -17.43752365380703        3.93678262416161       -6.02176605077207
C           20.70663653975868        0.61554039280367        1.77723807817980
C           19.42033524505569        7.04653763416156        1.32677058856086
C          -17.27815876694368        4.96254651679964       -0.14898468158373
C          -17.22654652859395        4.50402842538527        1.14274380424099
C           10.52056992899490        2.79028406003163       -0.62071091789326
C          -17.11429066204636        3.08873587443251        1.37344374175829
C           20.55356053425640        5.07289143495963        3.86980646244750
C           10.27050771424794        3.73342994757505       -1.69047648221623
C           18.60510044054516        7.22547621936068        0.04351486950262
C            3.45558090175484       -9.46335673148621       -2.30118031093661
C            2.52460547586567       -8.73265366043806       -1.33357442603140
C           13.89573651017732        0.83004704675311       -1.23650451776147
C            1.03833118034789       -9.20348464957477       -1.33738052384708
C          -17.09626184606223        2.64964513323660       -0.98147559993877
C            0.26125788419221       -8.01539541334249       -1.90226349655305
C            1.14056545974553       -6.82667282604071       -1.49519538840650
C           10.22493293526862        3.27823781291946       -2.97812039018079
C            0.76791437716477       -5.34205102388860       -3.66238413503481
C          -17.16521634218683        4.54507787936570       -2.64233846263287
C            1.12312185694535       -3.38890025012287       -2.71659144993157
C            1.33595149555762       -1.99651522323735       -2.42220443343031
C           14.03409956848229        1.93355811241338        1.02997201652324
C            7.99278913939677       -1.67286105733725       -2.29913442947457
C            1.51506624775182       -2.76021580347138       -0.02315189402917
C            8.26771413159982       -2.17519124736892       -0.08725543006588
C            7.81832524518153        0.10469336590607       -0.62780784848142
C            1.22364677694676       -4.34391226531231       -1.66650953196424
C          -17.83923211878302        5.89738258053610       -2.93446141262141
C           17.27211783061365        7.99945083888481        0.23061172148729
C          -16.76552614466535        6.75660228567330       -3.61088475375147
C           16.24270425513505        6.89799880865906        0.50155605779033
C          -15.42558307019392        6.05815787970681       -3.25075502888158
C          -14.67971226885740        6.63870589085262       -2.04862834364346
C           16.85566907939337        5.61007734760994       -0.07830973313027
C           22.70298627696903        6.27277769272414        6.26408143982017
C          -13.89727216547558        3.29269683405901        1.46863832961542
C          -14.03327926128577        1.56755940325822       -0.04208394617624
C           16.97449438939469        3.12223027975238        0.26100551714376
C           19.69197916357453        5.71427794443598        4.96768894691243
C           13.81643292678121        3.15719288841213        0.30373912448141
C            7.75305656888798       -0.28844982215817       -1.99986789493139
C            0.54447840421215       -6.79235683249184        1.89372529468173
C           -0.11695326059234       -6.06606535147100        3.06756233979099
C           13.49770824897925        5.23124884963315       -0.32836479689234
C           -1.51157773200458       -6.62074669894105        3.46270519731967
C            7.53256994761546       -0.47538051510811       -4.16729495159455
C           -2.48917462411913       -5.74037002712234        2.68000888389782
C           -1.72489942371996       -4.44044550442745        2.37563726423831
C            7.99205545826405       -3.04241699825856       -4.46336956047064
C           -1.70898538327030       -2.54427318916826        0.70968703439606
C           13.25207338120244        4.81064477552382       -2.93223776414372
C            7.01019234023426       -3.11340621882918       -5.64285475379482
C           -1.83589473103060       -2.99002067781079       -1.64396160902648
C          -13.73453947085911        1.00601880927101        2.40293622519647
C           -1.88961850280408       -4.41398105066312       -1.40012238761287
C           -1.83363560454697       -4.87268150812037       -0.11372632688167
C          -13.76695351997260        2.42928930401426        2.60345574611950
C          -13.74248133359318        4.47104806715406        3.39868791628763
C          -14.07269543992767        5.77934094564252        1.11848391390947
C          -14.69694084563677        7.00268174855468        1.81736324400030
C          -13.78232788834489        8.17449219822834        1.44163533668945
C           17.25414244968595        2.19788359332979        2.45524649865917
C          -12.41553109102325        7.48366549890463        1.17829419301807
C          -11.54367088104249        7.31862715777282        2.43035704225188
C           17.18230444090715        3.51474628769559        3.04966732983943
C           21.92251203803982        6.66654885795630        4.99927302181800
C          -10.67406702259239        2.41872418766633        5.40731105517092
C           12.64405065904220        6.20787064351546       -3.14678588411099
C           13.49672465078328        6.84148856328786       -4.25069284188181
C           14.86190475676046        6.11468481210291       -4.11609600438837
C           -2.09860509855643       -3.61338529130200        5.75173602858888
C           -2.67548222690668       -2.35333358934002        6.40650114103173
C           15.85255006371080        6.80612608754916       -3.17144902455212
C           -3.99959237291160       -2.56830849341431        7.18792396916083
C           20.72655965515336        1.57168976315940        2.85484124920706
C           -5.08898046345021       -2.29067792363941        6.15068887497412
C           -4.41871745169157       -1.40549663877647        5.08476083953625
C            7.84772894064022       -3.03115532981711       -6.92045542458913
C           -4.45981624965853       -0.84324008061928        2.66752698916276
C          -10.81579885566912        1.07327742404006        5.24654642596140
C          -10.77173283401037        0.51750172028951        3.90764189474988
C           -4.88039110180211       -2.61782075525561        0.93953790673375
C           17.03901316855136        4.60148666472135        2.23566327558369
C           -5.12208500869896       -3.55986836759001        2.04430745566831
C           -5.61833812837352       -4.91094940048578        1.66339237624877
C           -4.95049935912473       -3.17157902452968        3.33456644426168
C          -10.49931170936493        2.69754247875295        2.94224206434043
C          -10.28078499146828        4.70277859386686        4.46796634647533
C          -11.18586507571022        5.39409674631242        5.50615403382927
C          -10.34701667397465        6.56835195946347        6.01078668536378
C           -8.87742071517014        6.20169591417062        5.64445733012785
C           -7.93173281305148        6.09930502770651        6.83939763883387
C           -7.37924111706175        1.37961701311375        3.33153573257302
C           20.86581427464650        2.60546988858382        4.78628168719965
C           -7.60441021735731        1.99448014879344        1.15037894388997
C           -7.78090427302833       -0.34258289301436        1.64803720891703
C           -7.58443332595725       -0.01140250644692        3.02568234458912
C            9.84184030437875       -1.37596011033648       -6.65539315753913
C           20.43147587848605        7.02198908680595        5.25550710993976
C           -7.36555068704192        0.10562731208140        5.20020734182828
C            9.30150574001349       -2.79808437174669       -6.44477145739973
C           -4.67549366690308        1.26146248421720        7.23340300609730
C           -5.36236217533307        2.62953237084820        7.14365099842065
C           -7.06276258375357        2.70582765056955        5.47512320201821
C           -6.70690494379736        2.76307507107260        7.90555143629507
C           -7.79405126587410        2.67265140327471        6.82930917758718
H          -17.09608554804284        7.37278074060055       -7.88822675948437
H           15.22929794522285        7.07498739139010        0.09256718824475
H           16.37687530453902        5.26062629107004       -1.04175479112014
H           17.47772973861971        0.15006488184156        2.73242462335427
H           17.46538397194732        1.08609956185713        4.19431673052729
H           -5.09752304733314       -3.86716080690527        4.18041702050574
H           -5.10406753478415       -5.28546963750513        0.76343780717804
H           13.36455039481789        6.30382494951148       -0.36209335328371
H           14.23210615280668       -0.15624262818509        0.62900963474439
H           -6.68939119997130       -4.86088398450468        1.39759725903321
H           -5.51723979827676       -5.65392781221844        2.46367842251413
H           -4.56213954906528       -0.52771363453187        0.57771319248962
H           -4.39977283153007        0.91234049077703        6.20257843134785
H           -3.77273959319004        1.29389433035796        7.87296983217706
H           -4.65477443639423        3.45054735262876        7.41685689928601
H           -6.83750857939013        2.03758415819314        8.73860650276638
H           -8.40346258034964        1.75724298980026        6.97033857147264
H           -8.53581213535347        3.50042869459424        6.84931818497087
H           -7.32687427655369        3.57224357832387        4.80193819662393
H           -7.29458115049199       -0.12424792818426        6.25912046773488
H           -7.97342155716440       -1.76378913622218        0.15346804356145
H           -8.21405135788514       -2.34911274741861        1.76945591147901
H           -7.63548506418045        2.76719697699556        0.35205847505144
H           16.05932353198324        6.82585197686077        1.60043994144733
H           17.29875498642576        8.80536565938940        0.99324417051662
H           19.23031087244278        7.65455474132702       -0.77521422175140
H           -4.68952725799454       -0.30888936461654        5.14416695157677
H           -6.02666652280736       -1.83945285783264        6.52668130834669
H           20.24780962130308        7.77528564280095        1.39322053406574
H           -5.43728900576823       -3.26845999077593        5.73110385611129
H           19.82153384894733        5.99300475547393        1.38116730445143
H           -4.08810410725829       -3.55366177621374        7.69151267241823
H           -1.90613443441367       -1.82516404467522        7.01834473701448
H           10.02390736222673        3.95745514466409       -3.82784827526297
H           -1.29675290394312       -4.06544430729055        6.36213974528942
H           -1.71495852955055       -3.36006593285164        4.72944944271688
H           10.11167738745024        4.78108527004555       -1.45749480816151
H           17.22257553372564        3.62185895915164        4.12860788712628
H           10.56605595996226        4.11605502341448        0.97848075827062
H           12.70628589467962        3.96724923879875       -3.44666281581045
H           16.98755254728466        5.62867499466510        2.63836006579086
H           -7.05586404920663        5.46297946535358        6.58368333281297
H           -7.60454545338577        7.10672857533974        7.17263289578691
H           -8.47185558731528        6.92547809266519        4.89172241426610
H          -10.50035845355046        6.80075047936322        7.08881864242881
H          -11.44271415493539        4.72462526170053        6.35595231992215
H          -12.17414166413464        5.64344223090521        5.06989450626901
H          -10.32949078113676        5.19054258471783        3.45062535368423
H          -10.82419486251263       -1.17652007263600        2.71618415680135
H          -11.18484374648292       -1.45035715557885        4.37917193004576
H          -11.00466496399663        0.41771682043601        6.09294831131560
H          -10.72534022184436        2.89366848068395        6.40007721859114
H           -1.83432922568602       -5.95209005851064        0.11986387622753
H           -1.97140715870210       -5.09987070687691       -2.23906434133802
H           10.65272207693701        2.44225308180506        1.42327794365498
H           -1.61433887151442       -3.00742031460071       -3.69422229401049
H           -1.76296566105268       -1.44109827758388       -3.01926963822072
H           -2.01175261352942       -3.56959935970975        3.03712387511217
H           -3.45686916003811       -5.52689234038698        3.17415279810554
H           10.00047763210896        0.30036617375969       -4.57960552691162
H           -2.80371608598931       -6.27726460368252        1.75492310328180
H           -1.64540532034630       -7.71119196872457        3.29659943291659
H            8.47086662511334        1.76394296230305       -5.80649392959543
H            0.57465401481793       -6.00403680186096        3.94195958029034
H            9.19111262184252        3.22322274887744       -5.21577444621402
H            1.28478971533266       -7.53691488558884        2.23332909106428
H            1.02812398012299       -6.04176148512776        1.20440884173068
H           11.55392924027923        6.18253544194251       -3.33060957636420
H           10.20002979777531        3.40126107485359       -7.37887260294564
H            1.27402358700831       -3.06628106648969        1.98806828138277
H           12.40317294826905        1.58432155292863       -7.05412281386160
H           13.17002117620988        3.85463762914191       -6.72775568238624
H            1.59433870012205       -1.41226960726975        1.56033834767210
H          -11.09971553285754        6.28768736799573        2.45221681198699
H          -10.74507775115212        8.08142017783014        2.48208232256256
H          -11.84985243009044        7.95489706009033        0.34272318104584
H          -13.75692908076853        8.99226246927387        2.19200752203717
H          -14.69640986852498        6.89483326195252        2.92799717020233
H          -15.76788384417007        7.12581129855954        1.57492252088988
H          -14.58921661802027        5.46008902672068        0.16574010424613
H          -13.68176941633133        5.34612817278703        4.03527311669131
H          -13.90258966168295       -0.39485714146051        0.79619934635120
H          -14.04479897781177        0.10059867001667       -1.53275823966865
H          -14.27661436456489        1.73465860585675       -2.08089774970191
H            1.64803849587629       -0.73822976765757       -0.71730444708084
H           13.17507752234813        3.23016581337892       -5.00790236469408
H            0.56999787982975       -6.15882627275219       -4.35931540267456
H            1.06631320551618       -6.56211704408245       -0.39905798735828
H           -0.79468847999440       -7.92358413326572       -1.59255880472198
H            0.19168189993666       -8.10119900413649       -3.01951560825613
H            0.86322069504643      -10.16781316075071       -1.85873857204622
H            2.94196768325060       -8.78024330188039       -0.29411788537969
H            3.83568806397704      -10.40541762876448       -1.84579328619835
H            4.31659400033570       -8.81918542341713       -2.58516160411628
H           10.27644589153792       -0.99165074815758       -5.69510706921664
H           10.60316337608104       -1.34400411029068       -7.45465769455106
H            9.99458052882224       -3.56544326178759       -6.86593419861825
H            7.48212577359772       -2.26814857270911       -7.64631091752170
H            6.25529436389410       -2.29883542544622       -5.62791889848042
H            4.00623359334293       -3.62726935333833       -5.28139082259772
H            4.05554111515355        0.09901204467580       -5.30877499158321
H            2.50317490318037       -0.74541005219445       -5.18160122174452
H          -14.17022955329097        5.81427228531986       -1.48247223664805
H          -13.94167757120279        7.40443773656509       -2.34704323898270
H          -14.74556700729409        5.99355170855507       -4.13678210792030
H          -16.81787281409791        7.83475744278724       -3.34749289007376
H          -18.20744988543213        6.40615936592843       -2.01483638021936
H          -18.77775644635600        5.74860501795264       -3.50686279898870
H          -17.52472450891560        3.69765297475058       -3.29482060555512
H          -16.93780665238356        1.54286357288772        2.74266003963175
H          -16.64497760627092        3.09622524705380        3.37918019001293
H          -17.31616275026814        5.18558076563131        1.98240344910633
H          -17.38414958611825        6.03877021350152       -0.37534347114858
H            3.74216993550337       -1.32969938916321       -6.31951271595875
H            4.87588626078128       -1.50546096064771       -0.91497589234436
H           22.41675919929492        4.36284482843301        5.81101812062022
H            4.98682525812091       -5.82649597898520       -2.40013627461642
H            3.00440473992365       -6.54594087453269       -3.50190004288789
H           19.43077032136734        3.97477398544264       -1.01761121084290
H            3.04860459963020       -5.30013028070962       -4.74750790469655
H           19.79983325919177        2.44029386937603       -1.71487216553535
H            4.02129020665872       -6.85531249628041       -6.26016764796253
H            6.31355458667268       -7.65671256480202       -4.45263242910584
H           14.03403692642830       -1.23618644472231       -1.45120733880430
H            6.82136286187882       -7.50809083028309       -6.85497830322985
H            7.63021821998012       -6.06122738739617       -6.08737734213209
H            6.42106151418173       -4.05756353358085       -5.55187644883768
H           16.36952511492112        6.03756594322725       -2.54134108051968
H           20.34058274160335        0.58473253403976       -0.32938141109675
H            7.96506534435003       -3.92035127154626       -3.76498328452765
H           16.59070258835941        7.41630425014014       -3.72168605904483
H           15.32641389848201        5.89430052181890       -5.10441640885420
H           13.51914558968381       -0.37229832752419       -2.85286259374469
H           13.55400886435084        7.95058560517729       -4.20056052989602
H          -17.29494462359959        3.51488923172099       -4.99316999049749
H          -16.48458175110942        4.36702258833488       -6.38220052568940
H          -17.14904842065947        2.51613030599911       -7.66208055198776
H          -19.55816519525176        4.22798957989229       -7.70967514039141
H          -18.97406122730137        1.94822305063273       -9.30003003971259
H          -21.21499714909144        2.81017643138781       -6.73554357706117
H          -20.75488169331737        1.53608895140323       -7.84890701187421
H          -19.75435820923604        0.35351822441309       -5.98189721802533
H          -20.19243404017854        4.15189134522244       -4.97205987685899
H          -20.09505275280388       -0.07753288097039        0.07631061670906
H          -20.00756117164080       -2.24819723332421       -0.78199259425646
H          -19.65552493759490       -2.54554686343023       -2.43093697937913
H           20.99031614090085        2.85490831121467        5.83140116006368
H           19.43538518137072       10.39578487566373        3.04987411090706
H           20.32366580391352        5.47581462918807        2.83888302271519
H           17.22639431459889       10.06391449996583       -2.97313143810894
H           18.62987049692592        5.80242092569009        4.67805808647592
H           12.01727195780099        6.50195387291327       -8.15726789545548
H           19.66899355251342        5.08949486757482        5.88911332870187
H           10.15346998160810        0.09290266132234       -9.93672872912623
H           20.21921039000093        7.45994246172286        6.25192999515860
H            7.27987659525332       -5.92987472860287      -10.18926958046753
H           22.43217719468648        7.46010616077095        4.40840106244584
H            1.80762909385611      -10.22630927453583       -6.45846903940988
H           22.43342257394263        6.87093023970833        7.15222210930074
H            0.09788011939807      -10.48495185018256        2.43824838596118
H           23.79436734499561        6.34328007417586        6.09057022783270
H           -1.43152041747603       -6.79486412006960        7.28941244138023
H           12.73913562088386        6.84646832434332       -2.23454176732039
H           -3.97730128100346       -0.21914505795169       10.69041810117689
H            7.35564564289012       -0.28980801741654       -5.22410506108064
H           -6.04652013917407        5.92338336018359        9.87857390540047
H            8.45119051979919       -2.90694758958158        0.72462410766499
H          -11.46489794783244       10.52216119834307        4.58517919712204
H            7.23188897176751        2.05747863657468       -0.83166644610962
H          -14.88672950017829       10.43812092594021       -1.84816430474060
H            7.66925448655547        1.61946875165773        0.78187594918001
