234

H          0.09040        6.70301        0.46774
C         -0.87177        6.20576        0.37157
H         -1.33816        6.48800       -0.57654
H         -1.52106        6.49998        1.20021
O         -0.58366        4.81521        0.39856
H          0.85757        1.99722        2.11722
H         -0.29490        3.00515       -1.22909
O          3.14132        3.31450        0.00792
C          0.87427        2.16094        1.03240
H         -7.00325        1.49914       -2.71072
H         -1.20406        2.65023       -3.02208
C         -1.67458        3.96917        0.10343
H         -0.04041       -2.94362       -4.97394
N          1.99860        1.43424        0.47779
C          3.14173        2.09200        0.15817
C         -1.10349        2.69489       -0.55645
H          5.52116        3.10647       -0.18134
H         -1.64209       -3.74499       -4.96550
H         -2.33374        4.44424       -0.63704
O         -1.42813        1.48631        1.53611
C          5.56974        2.02906       -0.18415
H          1.05386        3.21992        0.83383
C          4.38559        1.30214       -0.01203
H         -6.22276        3.08964       -2.95800
H          7.65111        2.02241       -0.54718
C         -0.50275        1.72707        0.47970
C          6.78511        1.40902       -0.35972
C         -1.99752        1.96353       -2.69084
C         -6.55679        2.17305       -3.44629
H         -1.79981       -2.65434        4.01790
C         -1.07707       -2.87637       -5.31743
H         -2.56127        4.61212        1.96105
O         -1.55379        0.70644       -3.11720
C          4.47311       -0.08907        0.00744
H         -3.09657        2.46867       -4.46365
C          6.88356        0.01553       -0.32346
H         17.92979       -0.87898       -1.36991
H          3.59956       -0.71475        0.10618
H          9.84824       -2.76187       -1.23203
C         -2.51725        3.67833        1.37440
C          5.69973       -0.70770       -0.13463
C          8.14087       -0.69802       -0.47788
H         -1.10708       -2.82435       -6.40313
H          2.06218        0.45233        0.70762
H         -0.84924        3.16468        2.58645
O         -2.13628        2.04425       -1.29482
C         -1.76675        2.65337        2.25398
H         -4.54186        3.94154        5.89245
C         -3.32174        2.34058       -3.39414
O         -5.47376        1.53506       -4.11281
C         10.73596       -2.18068       -1.03972
H         12.05357       -3.82245       -1.43340
C          9.35953       -0.13548       -0.54850
H          5.73307       -1.78412       -0.10091
C         11.97185       -2.77952       -1.16388
H         16.90611       -2.53413       -2.97289
C         -1.20588       -2.31555        4.87336
H         19.32050       -2.40106       -2.78617
C         10.62759       -0.83168       -0.68580
H         -2.45063        0.56856        5.77133
H         -7.27937        2.40459       -4.22572
H         15.35930       -1.06593       -1.72057
H         -1.01843        0.31284        4.73671
H         -3.92786        5.53711       -3.03474
H         -3.46229        3.22104        7.11914
C         13.14898       -2.05969       -0.95624
O         -1.67417       -1.68145       -4.84907
C         -3.72229        3.23701        6.06311
H         -1.04021       -3.15006        5.55285
N         15.49527       -2.04531       -1.52398
H         -0.40187        0.75952       -0.01901
C         11.81353       -0.12188       -0.45824
C         17.95334       -1.95387       -1.17790
C         -2.00836       -0.07305        5.00986
C         14.43957       -2.78560       -1.13164
H         -2.21216       -2.51400       -3.03998
C         -4.37162        1.21685       -3.29178
O         -3.85135        3.53428       -2.86640
O         -1.90343       -1.34030        5.62004
H         20.38853       -0.88259       -0.95524
C         13.05167       -0.71836       -0.58970
C         16.77190       -2.62187       -1.88826
C         -2.47109       -0.37767       -2.98095
N         20.41189       -1.88319       -1.08582
C         19.27235       -2.52954       -1.69744
H         26.31579       -2.64527       -0.18268
H         11.75302        0.91547       -0.16377
H         21.71558       -5.98563       -2.39094
H         -0.24238       -1.92775        4.52285
O         -3.82205        3.24634        1.10563
C         -3.38912        4.71657       -3.50456
O         -4.13827        1.91198        5.75506
C         21.57664       -2.47166       -0.81918
O         14.51869       -3.99971       -0.95340
N         21.70190       -3.79168       -1.03408
H         13.93880       -0.14027       -0.37719
N         22.55202       -1.69085       -0.33199
C         -1.71344       -1.62333       -3.44000
O         -2.41720        2.33084        3.44558
C         22.88031       -4.29841       -0.72310
C         23.68604       -2.31573       -0.06384
O         23.10093       -5.59154       -0.89699
N         23.91430       -3.61492       -0.23640
H         17.87629       -2.11332       -0.10202
H         -3.61955        4.69170       -4.57349
O         24.65558       -1.55167        0.41390
H         -2.85743        3.52219        5.46294
H         -4.60271        4.29985       -0.50920
H         -4.68807        1.09426       -2.25044
C         22.02142       -6.36494       -1.41506
C         -3.75943       -0.10810       -3.78615
C         25.89397       -2.19024        0.71440
C         -4.68469        4.24957        0.57983
H         -2.74100       -0.49724       -1.92497
H         22.40898       -7.37734       -1.49726
H         25.75024       -2.96497        1.46860
H         16.72054       -3.68191       -1.62974
H         -5.69458        3.95607        0.86168
H         19.34568       -3.59499       -1.47670
C         -2.87636       -0.05847        3.72768
C         -3.44578        1.34215        3.42289
C         -4.55961        1.72065        4.42613
H         -2.31233        4.85231       -3.37039
H         -5.04202        2.63574        4.05500
H         -0.68964       -1.56410       -3.04624
H         -3.49980       -0.00716       -4.84831
O         -4.75099       -1.12209       -3.63683
O         -3.92466       -1.01463        3.74604
H         26.53895       -1.39896        1.08847
H         21.16910       -6.33140       -0.73506
H         -2.26107       -0.37543        2.88236
H         -4.45974        5.22498        1.01967
H         -3.92427        1.30744        2.43932
C         -5.61947        0.59897        4.41851
H         -6.33396        0.78008        5.23565
C         -4.92194       -0.74913        4.70679
H         -8.03939        0.52523        2.24306
C         -4.66403       -2.24612       -4.48012
H         -4.30430       -4.62016        1.55523
O         -6.26483        0.66184        3.17486
H         -3.96405       -2.04559       -5.30110
H         -3.84343       -7.28798       -4.57656
H         -8.12528       -0.89968       -5.22012
O         -4.14602       -3.38067       -3.82390
H         -4.45077       -0.68628        5.70662
H         -4.31787       -3.11727        4.86362
O         -6.51710       -1.87890       -6.10773
C         -7.57145        0.10277        3.12904
H         -7.39232       -0.17582       -6.67530
H         -8.13881        0.38171        4.02074
H         -5.76706       -3.63255       -5.60685
O         -4.47716       -6.23670       -2.98806
C         -7.18629       -0.67787       -5.73215
O         -5.87320       -1.77653        4.70429
H         -2.54100       -6.44234       -3.69369
C         -6.01574       -2.69759       -5.08516
C         -3.56724       -6.36657       -4.06778
C         -4.19324       -4.33792        2.61250
H         -5.24029       -2.49260        2.47857
C         -5.35722       -3.09875        4.52072
O         -4.09049       -5.48339        3.42131
H         -3.27626       -3.73591        2.69549
C         -5.36675       -3.43634        3.01966
C         -4.90778       -3.81878       -2.70279
H         -7.53629       -0.98362        3.04487
C         -4.26847       -5.11274       -2.16958
H         -4.74544       -5.34102       -1.21535
H         -4.85058       -3.05068       -1.92686
H         -6.55177       -0.05110       -5.10790
H         -2.98938       -7.11625        3.79767
H         -3.63960       -5.51961       -4.75341
H         -7.97423       -3.94168       -6.41953
H         -6.62304       -3.47996        6.20539
C         -2.94637       -6.26238        3.12628
C         -7.00185       -3.01708       -3.95339
H        -10.06316       -3.17170       -3.15526
C         -6.15112       -4.08375        5.41258
H         -2.02982       -5.68921        3.30140
O         -5.29230       -5.03372        6.00307
H         -8.07152       -3.48816        0.87510
O         -8.27608       -3.41856       -4.42804
C         -6.39702       -4.06787       -2.99897
H         -9.84185       -2.85039        5.06955
H         -6.46798       -5.36011        0.43125
H         -8.13828       -2.35800        4.85252
H         -3.93031       -3.73166        6.91135
O         -7.07916       -4.01923       -1.74224
H         -3.20182       -4.93817       -1.99730
C         -8.31919       -4.37696       -5.47917
O         -6.62514       -3.89930        2.57364
H        -11.42121       -3.42654       -2.01510
O         -8.23085       -5.56820        2.66066
H         -7.19368       -2.11471       -3.36314
C         -8.89996       -3.09100        4.58043
C        -10.51804       -2.84273       -2.21987
C         -4.58919       -4.57360        7.14430
H         -2.96382       -6.59677        2.08338
H         -6.14906       -7.81493       -0.07040
H         -9.36995       -4.64730       -5.56794
H         -5.28962       -4.27329        7.93114
C         -8.90529       -4.18495        0.75636
C         -7.04447       -5.08476        3.21450
H         -9.14302       -9.69144        0.07977
C         -7.29436       -4.88257        4.73067
C         -7.31100       -6.06056        0.35926
H         -7.73230       -5.26901       -5.24609
H         -6.50017       -5.07136       -3.43238
O         -9.94659       -3.60523        1.51036
O         -7.85497       -8.40918        0.92935
H         -9.03571       -3.09350        3.49825
C         -8.45971       -5.57118        1.25663
O         -9.60218       -2.94489       -1.13886
H        -10.76896       -1.78644       -2.28823
C         -6.82603       -7.47739        0.72572
H         -7.59527       -9.52470       -0.79768
C         -8.15598       -4.89965       -1.57630
O         -8.56238       -4.38695        5.06247
C         -8.38052       -8.99021       -0.25268
C         -9.28458       -4.25017       -0.73623
H         -3.99519       -5.42031        7.47999
O         -7.76202       -6.11881       -0.99542
H         -7.28315       -5.88079        5.18347
H         -6.23949       -5.83368        3.12199
H         -8.56008       -5.19085       -2.55465
H         -9.28366       -6.28773        1.15332
C        -11.06344       -4.42045        1.83918
H         -6.28552       -7.42685        1.67311
H        -11.48510       -4.91275        0.95940
H         -8.81824       -8.23562       -0.90898
H        -10.16378       -4.90577       -0.84732
H        -11.79522       -3.73061        2.25513
H        -10.79440       -5.16590        2.59125
H          9.44479        0.94005       -0.47949
H          8.04429       -1.77565       -0.51075
