234

C          1.26986       -2.84613       -0.58975
C          0.61231       -1.87172        0.40540
O          1.49948       -1.56776        1.47781
C         -0.76418       -2.34203        0.93228
H          0.49191       -0.92362       -0.12555
C          1.88836       -2.70310        2.22323
C          2.72239       -3.69294        1.38335
H          0.99717       -3.27133        2.53627
O          2.46688       -2.31592        3.43208
C          1.91664       -4.06271        0.10814
O          2.24568       -2.14995       -1.36305
H          2.61336       -4.50659       -0.61770
O          0.87776       -4.96809        0.41954
H          2.81213       -4.60916        1.99199
O          4.00162       -3.18753        1.12398
C          1.24880       -6.33931        0.38690
C          4.95871       -4.16284        0.72775
N         -1.89098       -1.52660        0.52372
H         -0.71372       -2.32649        2.02566
H         -0.97647       -3.36264        0.60542
H          0.47828       -3.22920       -1.24561
H          4.90631       -4.33678       -0.34887
H          4.80407       -5.10018        1.26978
H          5.93023       -3.75149        0.99527
H          1.66997       -6.60250       -0.58769
H          0.32864       -6.89362        0.55429
H          1.96902       -6.58113        1.17247
H          2.66635       -3.09618        5.66892
C          3.56441       -2.87286        6.24613
H          3.30887       -2.68356        7.28610
H          5.00580       -2.72063        4.20893
O          4.18453       -1.67896        5.78390
O          6.40485       -0.96654        3.06571
H          6.46241       -0.84125        5.12411
C          4.61264       -1.72105        4.44453
H          4.26233       -3.71320        6.18140
C          5.76347       -0.70560        4.28655
C          3.53575       -1.36945        3.39999
C          5.19696        0.72974        4.39827
H          2.88041        0.28296        5.78266
O          4.12885        0.96044        3.50056
C          3.03287        0.06791        3.62123
C          2.22403        0.25907        4.90829
H          1.89205        2.19927        6.70882
H          0.44799        2.82668        5.86441
H          1.53908       -0.59237        5.01610
C          1.04381        1.94008        6.06630
O          1.49497        1.46869        4.80766
H          2.37657        0.34273        2.79238
H          0.42656        1.18959        6.56879
H          4.03532       -1.39529        2.42749
H          6.82118       -0.15864       -4.40548
C          6.86591       -1.12763       -3.90883
H          7.65152       -1.73573       -4.35445
H          4.83570       -1.17347       -2.33709
O          5.66560       -1.86249       -4.10664
O          4.15886       -3.75320       -2.56388
H          5.28712       -5.42304       -2.59764
C          4.54236       -1.45442       -3.35619
C          4.94196       -4.67964       -3.31311
H          7.05943       -0.98236       -2.84444
C          3.62263       -2.69093       -3.31581
H          4.32957       -5.16063       -4.08182
C          3.81690       -0.25019       -4.00072
C          2.22692       -2.37147       -2.74946
H          5.79142       -4.18275       -3.78116
H          1.90857        1.96827       -3.83746
H          3.72824       -0.43978       -5.07934
O          4.62837        0.90250       -3.78633
O          1.66591       -1.29525       -3.44361
C          2.40989       -0.07885       -3.39326
C          1.56369        0.97602       -4.13271
H          1.41614       -1.07200       -5.99055
H         -0.07741       -0.12359       -5.82181
H          0.51908        0.82969       -3.83566
C          0.95594       -0.09841       -6.17551
O          1.68114        0.94095       -5.53538
H          2.52871        0.23098       -2.34603
H          0.98655        0.13312       -7.23867
H          1.56796       -3.22343       -2.97401
H          8.74204        1.90618       -5.57874
C          8.98963        2.65162       -4.82128
H          9.25492        2.15335       -3.88656
H          6.97516        2.10915       -3.43369
O          7.90438        3.54330       -4.60628
O          6.47550        1.41889       -5.94930
H          5.62721        3.29705       -5.91049
H          6.09492        2.12979       -7.85955
C          6.72959        2.94557       -4.10003
C          6.00191        1.21187       -7.27097
H          9.81149        3.27703       -5.16242
C          5.82631        2.44589       -5.23989
H          6.63905        0.43521       -7.68810
C          6.00040        4.02649       -3.28183
C          4.46536        1.99128       -4.66928
H          4.96102        0.87914       -7.28100
H          4.21667        5.20769       -1.53639
O          3.84570        3.09397       -4.06583
C          4.54698        3.64921       -2.95775
C          3.77359        4.89065       -2.48105
H          3.12087        6.88188       -4.99153
H          3.06187        5.09450       -5.05330
H          2.73110        4.60756       -2.30162
C          2.92802        5.97504       -4.42204
O          3.85593        5.99172       -3.34934
H          4.56380        2.91312       -2.14907
H          1.90248        5.98808       -4.03766
H          3.79071        1.71617       -5.48917
H          9.56304        4.89204        2.94304
C          9.97050        4.17366        2.22936
H         11.02899        4.01215        2.42795
H          7.99004        3.93872        0.60146
O          9.91010        4.66821        0.90259
O          9.34349        3.57327       -1.63946
H          9.63149        5.59516       -1.36316
H         10.97099        2.48521       -2.10971
C          8.61873        4.79666        0.33322
C         10.75584        3.50570       -1.80059
H          9.42730        3.22574        2.30704
C          8.87291        4.81996       -1.18558
H         11.08689        4.20353       -2.57502
C          7.91554        6.09354        0.78574
C          7.62905        5.23749       -1.99637
H         11.26139        3.73561       -0.86050
H          5.40175        7.60074        1.10946
H          7.94649        5.49219       -3.01585
O          7.09994        6.42737       -1.47374
C          6.69318        6.36414       -0.10682
C          5.99818        7.70621        0.20113
O          6.67443        4.21372       -2.04032
H          7.98266        8.65502       -1.31113
H          6.61832        9.79705       -1.33764
H          5.33714        7.93062       -0.64643
C          7.41676        9.37576       -0.71797
O          6.87248        8.77587        0.44669
H          5.97029        5.54682        0.01733
H          8.06916       10.17023       -0.36188
H          6.00769        4.96165       -3.85690
C          7.79736       -0.67995        3.06285
H          8.14994       -0.94839        2.07028
H          8.30966       -1.28095        3.82140
H          7.97622        0.37904        3.24996
H          9.11354        2.75371        5.96431
C          8.57269        3.58047        6.43551
H          8.51705        3.42265        7.51043
H          7.92615        3.44945        4.05544
O          7.22456        3.61024        5.99002
O          7.99022        6.00808        4.70542
H          5.96842        5.65508        4.85378
H          6.98204        7.62361        5.52291
C          7.05485        3.81973        4.60619
C          7.81276        7.40929        4.84272
H          9.07769        4.52287        6.21735
C          6.84595        5.31319        4.28616
H          8.74464        7.77989        5.26395
C          5.82281        3.01416        4.17941
C          6.54588        5.51107        2.76074
H          7.62952        7.87854        3.87411
H          3.20354        3.30880        3.15938
H          5.67502        6.18399        2.65557
H          5.05278        3.14624        4.94757
O          6.21155        1.64263        4.13055
O          6.24624        4.28719        2.13051
C          5.29794        3.48518        2.81019
C          3.90598        4.11561        2.90866
O          7.67341        6.09864        2.18885
H          2.62369        6.35623        4.89563
H          2.15144        6.06187        3.19529
H          3.62812        4.52617        1.92814
C          2.54530        5.60829        4.11012
O          3.85892        5.11883        3.90120
H          5.20833        2.60420        2.16968
H          1.88000        4.79807        4.42344
H          4.83997        0.86956        5.43769
H          3.47542       -3.01102       -4.35831
H          8.62600        6.92213        0.66803
N        -20.07868        3.01924        0.00865
C        -21.34191        2.96741       -0.40962
N        -21.61612        3.25791       -1.69007
C        -22.89008        3.16382       -2.02269
O        -23.16801        3.44689       -3.28586
N        -23.88157        2.81791       -1.20431
C        -23.50170        2.54710        0.04430
O        -24.41915        2.19210        0.93088
N        -22.26424        2.60108        0.49723
C        -18.96434        3.49549       -0.77974
H        -19.93459        2.84860        0.99319
C        -17.69367        2.68587       -0.51105
C        -16.54397        3.21831       -1.37287
H        -17.87413        1.63437       -0.73956
H        -17.42229        2.76984        0.54275
N        -15.27926        2.57108       -1.09724
H        -16.39178        4.28261       -1.17671
H        -16.79221        3.08975       -2.43180
C        -14.16986        3.25463       -0.75273
C        -12.85456        1.11938       -0.29406
C        -11.70886        3.14594       -0.86550
C        -10.49444        2.49874       -0.77913
C        -10.43077        1.14216       -0.44391
C        -11.63786        0.47339       -0.20191
H        -11.60501       -0.57020        0.07472
H         -9.58954        3.04877       -0.98265
C        -12.90799        2.47001       -0.63617
H        -13.75844        0.57272       -0.06900
H        -11.75682        4.19531       -1.11769
C         -9.19107        0.39309       -0.33195
C         -7.94827        0.90482       -0.29193
C         -6.72372        0.13606       -0.14729
C         -6.69922       -1.26052       -0.13566
C         -5.51401       -1.94134        0.01800
C         -4.28687       -1.27551        0.12203
C         -4.30540        0.11902        0.12195
C         -5.50054        0.79926       -0.00431
H         -5.47546        1.87511        0.00324
H         -3.39768        0.69825        0.18262
H         -7.60693       -1.82249       -0.27050
H         -5.52604       -3.01902        0.05884
H        -18.77541        4.55045       -0.54755
H        -19.26174        3.42248       -1.82666
H        -15.20828        1.58542       -1.29484
O        -14.18184        4.47058       -0.56655
C        -24.53322        3.36626       -3.68575
C        -25.76903        2.12601        0.47913
H        -24.53798        3.63571       -4.73906
H        -25.14262        4.06133       -3.10666
H        -24.91380        2.35384       -3.54410
H        -25.86776        1.39439       -0.32390
H        -26.09910        3.10077        0.11747
H        -26.34597        1.82282        1.34933
C         -3.06717       -2.11473        0.18395
H         -1.91067       -0.57032        0.84958
O         -3.10927       -3.31623       -0.08613
H         -7.80424        1.97633       -0.33470
H         -9.32469       -0.67666       -0.24833
