180

C        -13.10634        2.26940       -3.32597
C        -14.22740        3.10449       -0.90182
C        -14.21376        1.58748       -2.82965
C        -12.58908        3.36139       -2.65406
C        -13.12340        3.75691       -1.44191
C        -14.74406        2.03449       -1.62404
H        -11.78470        3.92826       -3.09716
H        -15.60547        1.51681       -1.22246
O        -12.57884        4.83849       -0.78914
C        -11.37531        4.63988       -0.16981
C        -11.36962        4.47116        1.23435
C        -11.34132        1.23435       -4.45746
C        -11.34969       -0.16934       -4.63093
O        -12.55235       -0.78509       -4.84737
C        -13.12424        3.31287        2.25940
C        -14.22529        0.87894        3.09177
C        -12.59802        2.64124        3.34743
C        -14.22778        2.80854        1.57684
C        -14.74870        1.59879        2.02344
C        -13.12178        1.42376        3.74110
H        -11.79482        3.08819        3.91301
H        -15.60822        1.19171        1.50695
C        -13.11148       -1.43779       -3.77276
C        -14.22620       -2.82173       -1.61246
C        -12.59040       -2.65596       -3.37764
C        -14.21662       -0.89194       -3.12706
C        -14.74427       -1.61129       -2.06048
C        -13.12118       -3.32735       -2.29165
H        -11.78582       -3.10362       -3.94070
H        -15.60493       -1.20328       -1.54667
O        -12.56670        0.77053        4.81752
O        -12.57299       -4.53210       -1.91875
C        -11.36381        0.15401        4.60454
C        -11.35592       -1.24952        4.42986
C        -11.37137       -4.48847       -1.26183
C        -11.38117       -4.65706        0.14233
C        -13.11838       -2.28337        3.29310
C        -14.23346       -3.11767        0.86592
C        -14.22381       -1.60049        2.79366
C        -12.60035       -3.37600        2.62281
C        -13.13172       -3.77125        1.40925
C        -14.75112       -2.04709        1.58659
H        -11.79784       -3.94365        3.06831
H        -15.61095       -1.52869        1.18258
O        -12.55653       -1.90748        4.49062
C        -14.83052       -0.43415        3.55072
H        -14.56290       -0.56030        4.59937
C        -14.83833        3.56150        0.40954
H        -14.57745        4.61190        0.53519
C        -14.81926        0.42156       -3.58828
H        -14.54835        0.54714       -4.63615
C        -14.84123       -3.57410       -0.44712
H        -14.58125       -4.62482       -0.57201
C         -9.01738        0.18301        4.35747
C         -8.99345       -1.20333        4.17902
C         -9.00397       -0.19957       -4.37742
C         -8.97954        1.18691       -4.20017
O        -12.54134        1.89304       -4.52186
O        -12.57304        4.51667        1.88789
O        -12.58669       -4.85378        0.75839
C        -16.36520        3.50555        0.40226
H        -16.75720        4.11237       -0.41356
H        -16.77081        2.50118        0.28070
C        -16.35781       -0.42909        3.50447
H        -16.74712        0.38569        4.11441
H        -16.74712       -1.36628        3.90130
C        -16.36802       -3.51625       -0.44433
H        -16.75897       -3.91095       -1.38174
H        -16.77274       -2.51136       -0.32406
C        -16.34669        0.41795       -3.54662
H        -16.73389        1.35538       -3.94493
H        -16.76191        0.29696       -2.54611
H        -16.76990       -0.30733        2.50276
H        -16.76318       -4.12251        0.37037
H        -16.73494       -0.39666       -4.15744
H        -16.75842        3.90067        1.33854
C         -9.00475       -4.28475       -1.21864
C         -9.03052       -4.45266        0.16905
C         -9.00305        4.26499        1.19777
C         -9.02487        4.43285       -0.18999
C         -2.71204        4.05871        0.57511
C         -3.44587        3.06674        1.20533
C         -4.82705        3.07216        1.16158
C         -5.52459        4.07035        0.49470
C         -4.77728        5.04549       -0.15234
C         -3.39723        5.04242       -0.11868
F         -2.82636        2.09821        1.86521
F         -5.48403        2.09208        1.76996
F         -5.39321        6.03326       -0.79307
F         -2.73674        6.01016       -0.73707
C         -2.71594       -4.06235       -0.57588
C         -3.45176       -3.07361       -1.20872
C         -4.83291       -3.08451       -1.16986
C         -5.52866       -4.08556       -0.50546
C         -4.77966       -5.05793        0.14376
C         -3.39944       -5.04922        0.11501
F         -2.83385       -2.10230       -1.86597
F         -5.49154       -2.10659       -1.77990
F         -5.39403       -6.04810        0.78231
F         -2.73706       -6.01426        0.73565
C         -2.71041        0.42991       -3.65389
C         -3.48949        1.09326       -2.71981
C         -4.86777        1.10045       -2.82446
C         -5.51607        0.45197       -3.86753
C         -4.72415       -0.21846       -4.79011
C         -3.34773       -0.23608       -4.68765
F         -2.91653        1.73060       -1.70764
F         -5.57055        1.73138       -1.89175
F         -5.29198       -0.84003       -5.81844
F         -2.64233       -0.88165       -5.60483
C         -2.72239       -0.45707        3.65047
C         -3.36098        0.21040        4.68251
C         -4.73782        0.19676        4.78061
C         -5.52876       -0.47107        3.85534
C         -4.87917       -1.12008        2.81342
C         -3.50062       -1.11670        2.71306
F         -2.65659        0.85268        5.60270
F         -5.30708        0.81895        5.80777
F         -5.58085       -1.74841        1.87813
F         -2.92633       -1.75511        1.70235
C        -10.20184        4.64599       -0.89408
H        -10.19358        4.81906       -1.96028
C        -10.18890        4.30844        1.92771
H        -10.17495        4.22216        3.00497
C        -10.19255        0.88179        4.59667
H        -10.18436        1.94759        4.77217
C        -10.17566       -1.93774        4.24255
H        -10.15949       -3.01424        4.14838
C        -10.20969       -4.66465        0.86984
H        -10.20469       -4.83747        1.93610
C        -10.18855       -4.32716       -1.95189
H        -10.17150       -4.24070       -3.02908
C        -10.17895       -0.89787       -4.61906
H        -10.17091       -1.96385       -4.79352
C        -10.16113        1.92200       -4.26753
H        -10.14458        2.99858       -4.17435
C         -6.98659        4.14631        0.51923
C         -6.98443       -0.51339        4.00641
C         -6.99032       -4.16559       -0.53438
C         -6.97136        0.49581       -4.02211
N         -7.70906        4.08962        1.61262
N         -7.68906        1.59309       -3.98210
N         -7.70272       -1.61019        3.96390
N         -7.70965       -4.10913       -1.62982
N         -7.72080        0.59150        4.24709
H         -7.41697        1.58602        4.24854
N         -7.73025       -4.37484        0.57410
H         -7.42188       -4.35718        1.56754
N         -7.70797       -0.60881       -4.26347
H         -7.40511       -1.60359       -4.26384
N         -7.72350        4.35500       -0.59137
H         -7.41252        4.33816       -1.58399
Br        -0.86277       -0.46150        3.54566
Br        -0.85588       -4.09955       -0.66870
Br        -0.85133        0.42288       -3.54053
Br        -0.85267        4.10806        0.67630
O         -7.27029        4.19305       -3.23776
H         -7.36602        3.25001       -3.51705
C         -6.23696        4.79275       -3.97958
H         -6.18624        5.84795       -3.71405
H         -5.25600        4.34870       -3.77522
H         -6.41924        4.72609       -5.05608
O         -7.30779       -3.27120       -4.20122
H         -7.39490       -3.59408       -3.27170
C         -6.31119       -4.01531       -4.85780
H         -6.27689       -3.70528       -5.90141
H         -5.31459       -3.85955       -4.42950
H         -6.52449       -5.08785       -4.83342
O         -7.28231       -4.21026        3.22112
H         -7.37893       -3.26710        3.49972
C         -6.25057       -4.80932        3.96565
H         -6.19791       -5.86430        3.69958
H         -5.26947       -4.36410        3.76453
H         -6.43614       -4.74357        5.04164
O         -7.31596        3.25298        4.18561
H         -7.39949        3.57541        3.25560
C         -6.31982        3.99536        4.84486
H         -6.28984        3.68629        5.88888
H         -5.32215        3.83677        4.42014
H         -6.53050        5.06838        4.81868
