420

C         34.04039       19.85990       15.61998
C         33.96597       21.27277       15.62079
C         35.14947       22.04208       15.57186
C         35.07334       23.46135       15.56258
C         36.25296       24.23301       15.49768
C         36.17882       25.64297       15.53544
C         37.36917       26.42291       15.46223
C         37.30119       27.83317       15.54773
C         38.46641       28.58144       15.38008
C         39.67989       27.96353       15.16315
H         40.56963       28.55896       15.01875
C         39.76343       26.58729       15.13814
H         40.73061       26.13935       14.98148
H         38.43397       29.65849       15.39414
C         36.02821       28.46345       15.78515
C         34.84849       27.69545       15.76792
C         33.58845       28.33129       15.89797
C         32.39518       27.55829       15.86394
C         32.47273       26.15096       15.77098
C         33.73838       25.51076       15.67424
C         31.28881       25.38130       15.78795
C         31.36513       23.96649       15.73283
C         32.62577       23.32729       15.67009
C         30.17959       23.19547       15.76738
C         30.25623       21.78380       15.74097
C         31.51748       21.14462       15.70053
C         31.59243       19.72877       15.69367
C         30.40763       18.95770       15.71065
C         29.14440       19.59749       15.75025
C         27.96118       18.82512       15.77207
C         26.70175       19.46348       15.83732
C         25.51640       18.68894       15.85154
C         24.25677       19.32592       15.92637
C         23.07339       18.55270       15.93679
C         23.14967       17.14350       15.85524
C         24.40857       16.50754       15.76640
C         24.48406       15.09785       15.65614
C         25.74229       14.46242       15.55980
C         25.81583       13.05837       15.41992
C         27.07648       12.42149       15.32399
C         27.15024       11.02036       15.15808
C         28.40859       10.38360       15.07442
C         28.48310        8.98183       14.87838
C         29.74152        8.34356       14.81180
C         30.93109        9.10314       14.97772
C         32.18986        8.46244       14.97312
C         32.26732        7.05798       14.76083
C         33.52284        6.41511       14.76805
C         33.56258        5.03834       14.50732
H         34.50381        4.51413       14.49022
C         32.42506        4.32282       14.25960
H         32.52421        3.26800       14.06381
C         31.15945        4.92598       14.27002
C         29.95835        4.17604       14.02323
C         28.70134        4.81172       14.11016
C         28.62932        6.20239       14.40065
C         27.36963        6.83429       14.50277
C         26.17539        6.07505       14.36267
C         24.91833        6.70077       14.52845
C         24.84797        8.09398       14.78219
C         26.03404        8.85731       14.86835
C         23.59159        8.72077       14.94332
C         22.40275        7.94873       14.90222
C         22.47091        6.55940       14.66003
C         21.28643        5.78962       14.64044
C         20.03845        6.40398       14.89308
C         18.85063        5.62152       14.93213
C         18.91519        4.23414       14.68770
C         17.73022        3.49005       14.77444
H         17.74093        2.42655       14.60211
C         16.53692        4.07680       15.08887
H         15.66291        3.44897       15.14279
C         16.43476        5.45518       15.32260
C         15.18212        6.07852       15.65176
C         15.11132        7.48032       15.79549
C         16.28964        8.26633       15.66255
C         16.21398        9.67110       15.78872
C         14.95747       10.30287       15.99639
C         14.87843       11.71305       16.04903
C         13.62272       12.34580       16.18931
C         13.53866       13.76468       16.16816
C         12.27917       14.40083       16.21562
C         12.19480       15.80872       16.13096
C         10.92397       16.44650       16.11233
C          9.74952       15.67266       16.20851
C          8.51408       16.32590       16.10297
H          7.59800       15.75837       16.09264
C          8.43394       17.68588       16.00796
H          7.45583       18.13126       15.93273
C          9.58204       18.49122       16.02381
C          9.50156       19.92402       16.07983
C         10.68183       20.69693       16.12385
C         11.95078       20.05727       16.07301
C         12.03021       18.64464       16.02026
C         13.29160       18.00583       16.03686
C         14.47197       18.77933       16.09215
C         14.39234       20.19063       16.15994
C         15.58009       20.96226       16.24039
C         15.50377       22.37016       16.33797
C         14.23803       23.00822       16.39211
C         13.05271       22.24151       16.30272
C         11.79462       22.88031       16.35238
C         11.71744       24.28192       16.51946
C         10.44897       24.93089       16.55187
C          9.26227       24.18024       16.37724
C          8.04265       24.85405       16.29674
C          7.97674       26.22467       16.43129
H          7.02447       26.72805       16.35133
C          9.12234       26.95554       16.66480
H          9.03818       28.02527       16.76165
H          7.12838       24.31594       16.10864
C          9.34514       22.74457       16.28075
C          8.19471       21.94826       16.24053
H          7.21739       22.39858       16.29890
C         10.36895       26.33272       16.73127
C         11.57924       27.08988       16.92653
C         12.83121       26.45852       16.79231
C         14.02094       27.22865       16.83682
C         15.28457       26.59503       16.68096
C         15.35482       25.18935       16.55919
C         16.61296       24.55571       16.45943
C         17.79693       25.33058       16.43702
C         17.72122       26.73980       16.49935
C         18.90600       27.51982       16.41211
C         20.16318       26.88464       16.30504
C         20.24188       25.46924       16.28606
C         21.50176       24.83410       16.20182
C         22.68673       25.61069       16.14481
C         23.94749       24.97410       16.07983
C         25.12992       25.74811       16.03250
C         26.39471       25.10935       15.97829
C         27.57835       25.88176       15.94641
C         28.83925       25.24452       15.88648
C         27.49895       27.29725       15.96286
C         28.68175       28.06990       15.95259
C         29.94969       27.42775       15.91911
C         28.60031       29.48018       15.96425
C         29.79159       30.25704       16.00136
C         31.05655       29.61513       16.01511
C         32.23751       30.38095       16.09965
C         32.12119       31.77559       16.17964
H         33.00134       32.39216       16.25687
C         30.90463       32.39507       16.13645
H         30.88094       33.47070       16.19302
C         29.71354       31.66476       16.02464
C         28.43550       32.31169       15.92196
C         27.25709       31.53673       15.89424
C         25.99174       32.17145       15.80423
C         24.80134       31.39074       15.86023
C         24.88634       29.98493       15.95095
C         26.15616       29.34500       15.95923
C         23.70619       29.21038       16.02706
C         23.78823       27.79522       16.07027
C         22.44453       29.84746       16.06112
C         21.26075       29.06946       16.18318
C         20.00236       29.70424       16.27944
C         19.91777       31.12297       16.21716
C         21.09043       31.89474       16.01366
C         20.99872       33.29299       15.86658
C         22.18675       34.07103       15.61650
C         22.12551       35.43298       15.32005
C         23.27449       36.16566       15.10805
H         23.20498       37.21396       14.85703
C         24.51195       35.56811       15.22419
H         25.38964       36.17082       15.05903
C         24.62783       34.20957       15.51961
H         21.17558       35.93329       15.22999
C         23.45127       33.43714       15.66874
C         19.73948       33.89332       15.98446
C         18.61463       33.15508       16.22803
H         17.67514       33.67569       16.31262
H         19.63717       34.96283       15.90236
C         18.66570       31.76026       16.34600
C         17.48531       30.97602       16.58002
C         16.23618       31.56921       16.81067
H         16.14344       32.64154       16.85859
C         15.10911       30.81740       16.98619
H         14.17643       31.33095       17.15158
C         15.14557       29.41736       16.92607
C         16.39050       28.78851       16.71919
C         17.56628       29.56840       16.57277
C         22.36183       31.25320       15.96699
C         23.53870       32.02528       15.84202
C         25.91215       33.57157       15.66919
C         27.09987       34.31183       15.69974
H         27.07205       35.38710       15.63506
C         28.31757       33.70475       15.83403
H         29.19523       34.32929       15.85491
C         27.33890       30.11732       15.94527
C         26.23621       27.93534       15.98654
C         26.47202       23.69853       15.95330
C         27.73266       23.06161       15.88156
C         27.80846       21.64766       15.84383
C         25.28633       22.92337       15.99080
C         25.36331       21.51252       15.95452
C         25.04983       27.15875       16.02920
C         24.02574       23.55986       16.05939
C         22.84288       22.78609       16.09634
C         22.91985       21.37539       16.05390
C         21.73405       20.60034       16.07294
C         20.47283       21.23578       16.14265
C         20.39639       22.64912       16.19917
C         19.13594       23.28438       16.27895
C         17.94868       22.50816       16.29131
C         18.02554       21.09828       16.22120
C         19.28921       20.46197       16.15395
C         19.36706       19.05213       16.09640
C         18.18168       18.27727       16.09868
C         16.92042       18.91286       16.14280
C         18.26035       16.86747       16.03212
C         17.07843       16.09367       16.03402
C         15.81755       16.73007       16.07296
C         14.63299       15.95262       16.07970
C         17.15753       14.67993       15.97305
C         15.97858       13.90364       16.01184
C         18.41586       14.04587       15.86893
C         18.49173       12.63820       15.76650
C         17.31284       11.86189       15.81156
C         19.75066       12.00548       15.61813
C         19.82409       10.60192       15.47196
C         18.64063        9.82284       15.50668
C         18.71201        8.42154       15.34428
C         21.07785        9.97468       15.29488
C         22.26061       10.74726       15.30463
C         22.18842       12.14865       15.47090
C         23.37424       12.92211       15.49333
C         20.93186       12.78019       15.60981
C         20.85728       14.18876       15.73982
C         22.03993       14.96184       15.74449
C         19.59968       14.82255       15.85464
C         19.52274       16.23066       15.95074
C         20.70515       17.00434       15.94716
C         20.62742       18.41640       16.02471
C         22.60753       27.02135       16.14209
C         21.57964       23.42336       16.16985
C         21.34293       27.66005       16.21311
C         18.82832       28.93011       16.41840
C         19.06012       24.69453       16.33640
C         16.46544       27.36997       16.64198
C         13.95235       28.62494       17.02632
C         12.70077       29.19661       17.29181
H         12.62039       30.24310       17.53569
C         11.55371       28.45408       17.24196
H         10.61766       28.94493       17.45282
C         12.90332       25.04681       16.60769
C         14.16287       24.41406       16.52462
C         16.68813       23.14213       16.36930
C         16.84161       20.32609       16.20711
C         15.73762       18.14042       16.10725
C         13.13140       20.82825       16.16406
C         10.60183       22.10814       16.24937
C          8.26984       20.58663       16.15171
H          7.34833       20.02875       16.14548
C          9.84039       14.25236       16.40124
C          8.70829       13.46214       16.63867
C          8.80288       12.10688       16.79808
C         10.03185       11.44086       16.70893
C         10.13022       10.00629       16.82952
C          9.02910        9.21891       17.16761
C          9.13482        7.84615       17.24684
H          8.27462        7.25634       17.52820
C         10.33019        7.22134       16.95912
H         10.37443        6.14681       17.02368
C         11.46229        7.96087       16.61562
C         12.71508        7.32440       16.28784
C         12.82188        5.93503       16.15163
H         11.95468        5.30788       16.27773
H          8.07703        9.67185       17.38945
C         11.37516        9.37396       16.59197
C         12.54172       10.15731       16.35582
C         11.19087       12.20844       16.47928
H          7.89563       11.55327       16.97599
H          7.73392       13.91648       16.71395
C         10.84119       17.85945       16.02523
C         13.37178       16.58744       16.07207
C         11.09994       13.61960       16.36290
C         14.71460       14.54066       16.08871
C         12.45629       11.56779       16.34560
C         16.05778       12.49388       15.95678
C         13.78954        9.52619       16.14935
C         17.38822       10.45004       15.70203
C         17.53455        7.64459       15.41364
C         13.86975        8.10533       16.08213
C         14.00919        5.33453       15.83467
H         14.02321        4.26156       15.73749
C         20.17359        3.62231       14.35954
C         20.27406        2.26208       14.03995
C         21.47347        1.68869       13.71961
C         22.66249        2.42787       13.71576
C         23.92844        1.82379       13.37974
C         24.01364        0.51850       12.89441
C         25.23452       -0.05095       12.59966
H         25.27792       -1.05600       12.20611
C         26.40076        0.65354       12.81259
H         27.33719        0.17525       12.57790
C         26.37147        1.96220       13.29539
C         27.58131        2.70666       13.54564
C         28.84371        2.10701       13.46193
H         28.93380        1.06037       13.22202
H         23.12302       -0.06266       12.72181
C         25.11838        2.57381       13.54074
C         25.05376        3.94550       13.92163
C         23.79996        4.56122       14.13924
C         22.60300        3.79121       14.06627
H         21.48615        0.63704       13.48501
H         19.39645        1.63713       14.03137
C         17.60520        6.23612       15.22577
C         19.96786        7.79724       15.11365
C         21.35308        4.39694       14.35801
C         21.14885        8.57200       15.10290
C         23.52004       10.11636       15.15014
C         24.70450       10.88530       15.19971
C         23.73131        5.93769       14.44230
C         26.24213        4.69890       14.05780
C         27.51059        4.06853       13.89980
C         29.99007        2.81299       13.70154
H         30.92977        2.29097       13.62875
C         34.71397        7.17056       15.04590
C         34.63201        8.56567       15.24000
C         35.80492        9.31858       15.50868
C         35.72759       10.73618       15.62643
C         34.47839       11.38148       15.50985
C         33.29316       10.61837       15.32516
C         32.03803       11.26372       15.28879
C         31.96169       12.67526       15.39827
C         33.14543       13.43946       15.50889
C         33.07165       14.84922       15.57271
C         34.25983       15.61868       15.63601
C         35.51295       14.97415       15.71224
C         36.69449       15.74245       15.78271
C         36.62634       17.15141       15.69850
C         37.81915       17.92555       15.73422
C         39.06171       17.29192       15.93631
C         40.21601       18.08688       15.95948
H         41.18448       17.63600       16.10057
C         40.15327       19.44168       15.79394
H         41.07420       20.00051       15.82551
C         38.92994       20.10434       15.62135
C         38.85390       21.53162       15.47995
C         37.59756       22.17333       15.48464
C         40.00277       22.31883       15.33518
C         39.92659       23.68096       15.24619
C         38.69997       24.35309       15.31416
H         40.84568       24.23209       15.13493
H         40.97549       21.85844       15.27693
C         39.11831       15.86756       16.11620
C         40.31158       15.20437       16.42950
C         40.36752       13.84147       16.53136
C         39.23873       13.04053       16.31514
C         39.31136       11.59922       16.33111
C         40.50426       10.92582       16.59689
C         40.56304        9.54824       16.57766
H         41.49362        9.04726       16.80114
C         39.44251        8.80672       16.26722
H         39.52494        7.73255       16.26197
C         38.22583        9.42853       15.98552
H         41.40390       11.47084       16.82950
C         38.14837       10.84118       16.04820
C         38.00949       13.68087       16.06122
C         36.82767       12.90723       15.87556
H         41.31702       13.39173       16.77043
H         41.21654       15.76379       16.60125
C         37.74810       19.33768       15.61827
C         36.48214       19.98710       15.56299
C         35.37208       17.79804       15.61668
C         37.94512       15.09618       15.98134
C         35.58384       13.55500       15.72308
C         34.18733       17.03119       15.62916
C         32.92538       17.67640       15.64133
C         31.74058       16.90627       15.63622
C         31.81391       15.49204       15.57138
C         30.62942       14.72467       15.50879
C         29.36861       15.36579       15.55597
C         29.29468       16.77344       15.65241
C         28.18542       14.59683       15.51232
C         30.70440       13.31753       15.40521
C         29.51769       12.55014       15.32469
C         34.40395       12.79106       15.57924
C         36.89921       11.49627       15.84636
C         37.04763        8.66862       15.64375
C         37.09739        7.28545       15.43196
H         38.03695        6.76048       15.48624
C         35.97398        6.56418       15.13397
H         36.08089        5.50344       14.97817
C         31.08282        6.30924       14.53325
C         33.36833        9.21588       15.17731
C         30.85458       10.50295       15.14849
C         29.81420        6.95230       14.58062
C         27.29677        8.22243       14.74991
C         29.59261       11.14680       15.18144
C         25.96212       10.25264       15.07665
C         28.26038       13.18937       15.38663
C         24.63175       12.28910       15.37359
C         26.92829       15.23377       15.59295
C         26.85313       16.64066       15.69808
C         23.30033       14.32644       15.63427
C         21.96422       16.36927       15.85344
C         21.81099       19.18970       16.01437
C         24.18017       20.73885       15.98225
C         25.59228       17.27948       15.77553
C         26.62566       20.87418       15.88155
C         28.03627       17.41235       15.71229
C         30.48132       17.54617       15.67246
C         29.06847       21.00976       15.77368
C         28.91598       23.83421       15.84427
C         30.02747       26.01810       15.86565
C         31.13511       28.19606       15.93602
C         33.51663       29.72944       16.07018
C         34.71386       30.44448       16.20249
H         34.69899       31.49996       16.41989
C         35.92796       29.83242       16.06005
H         36.81774       30.42964       16.17728
C         38.62642       25.79349       15.29524
C         34.92161       26.27887       15.64511
C         37.52168       23.58816       15.42781
C         33.81378       24.10047       15.62967
C         36.40683       21.39801       15.54409
C         32.70160       21.91566       15.66318
C         35.29827       19.21672       15.58805
C         32.85188       19.08797       15.65683
